<?xml version="1.0" encoding="UTF-8"?>

<!-- generated on 11/05/15 01:56:57 by SUMO netconvert Version 0.21.0
<?xml version="1.0" encoding="UTF-8"?>

<configuration xmlns:xsi="http://www.w3.org/2001/XMLSchema-instance" xsi:noNamespaceSchemaLocation="http://sumo-sim.org/xsd/netconvertConfiguration.xsd">

    <input>
        <osm-files value="gerching.osm"/>
    </input>

    <output>
        <output-file value="gerching.net.xml"/>
    </output>

    <projection>
        <proj.utm value="true"/>
    </projection>

    <edge_removal>
        <remove-edges.isolated value="true"/>
    </edge_removal>

    <processing>
        <no-turnarounds value="false"/>
        <offset.disable-normalization value="true"/>
        <roundabouts.guess value="true"/>
        <junctions.join value="true"/>
    </processing>

    <report>
        <verbose value="true"/>
    </report>

</configuration>
-->

<net>

    <location netOffset="0.00,0.00" convBoundary="697942.05,5348694.36,698357.26,5349400.93" origBoundary="11.667294,48.260455,11.672852,48.266763" projParameter="+proj=utm +zone=32 +ellps=WGS84 +datum=WGS84 +units=m +no_defs"/>

    <edge id=":1228420007_0" function="internal">
        <lane id=":1228420007_0_0" index="0" allow="bicycle" speed="5.56" length="4.82" shape="698117.71,5348694.39 698118.51,5348693.14 698119.33,5348692.71 698120.16,5348693.10 698121.01,5348694.33"/>
    </edge>
    <edge id=":130115367_0" function="internal">
        <lane id=":130115367_0_0" index="0" allow="bicycle" speed="5.56" length="4.82" shape="698224.52,5349073.72 698223.96,5349075.10 698223.24,5349075.67 698222.35,5349075.43 698221.29,5349074.38"/>
    </edge>
    <edge id=":130115367_1" function="internal">
        <lane id=":130115367_1_0" index="0" allow="pedestrian" speed="2.78" length="10.06" shape="698219.08,5349079.05 698221.99,5349078.41 698223.95,5349077.81 698225.82,5349076.97 698228.47,5349075.58"/>
    </edge>
    <edge id=":130115367_2" function="internal">
        <lane id=":130115367_2_0" index="0" allow="pedestrian" speed="2.78" length="5.27" shape="698219.08,5349079.05 698221.13,5349078.72 698222.63,5349078.70 698223.58,5349078.98 698223.98,5349079.56"/>
    </edge>
    <edge id=":148950363_0" function="internal">
        <lane id=":148950363_0_0" index="0" speed="13.89" length="6.23" shape="698209.38,5349084.27 698208.11,5349078.17"/>
    </edge>
    <edge id=":148950363_1" function="internal">
        <lane id=":148950363_1_0" index="0" allow="pedestrian" speed="8.33" length="4.75" shape="698209.38,5349084.27 698209.49,5349082.84 698210.47,5349081.64 698212.03,5349080.80"/>
    </edge>
    <edge id=":148950363_2" function="internal">
        <lane id=":148950363_2_0" index="0" speed="13.89" length="2.41" shape="698209.38,5349084.27 698209.94,5349082.90 698210.66,5349082.33"/>
    </edge>
    <edge id=":148950363_9" function="internal">
        <lane id=":148950363_9_0" index="0" speed="8.33" length="3.12" shape="698212.03,5349080.80 698212.31,5349080.65 698215.01,5349079.89"/>
    </edge>
    <edge id=":148950363_10" function="internal">
        <lane id=":148950363_10_0" index="0" speed="13.89" length="2.41" shape="698210.66,5349082.33 698211.55,5349082.56 698212.61,5349083.61"/>
    </edge>
    <edge id=":148950363_3" function="internal">
        <lane id=":148950363_3_0" index="0" allow="pedestrian" speed="8.33" length="5.00" shape="698211.34,5349077.49 698211.80,5349078.78 698212.57,5349079.61 698213.64,5349079.98 698215.01,5349079.89"/>
    </edge>
    <edge id=":148950363_4" function="internal">
        <lane id=":148950363_4_0" index="0" speed="13.89" length="6.25" shape="698211.34,5349077.49 698212.61,5349083.61"/>
    </edge>
    <edge id=":148950363_5" function="internal">
        <lane id=":148950363_5_0" index="0" speed="13.89" length="2.41" shape="698211.34,5349077.49 698210.78,5349078.87 698210.06,5349079.45"/>
    </edge>
    <edge id=":148950363_11" function="internal">
        <lane id=":148950363_11_0" index="0" speed="13.89" length="2.41" shape="698210.06,5349079.45 698209.17,5349079.21 698208.11,5349078.17"/>
    </edge>
    <edge id=":148950363_6" function="internal">
        <lane id=":148950363_6_0" index="0" speed="8.33" length="4.89" shape="698205.88,5349081.85 698207.09,5349081.38 698207.87,5349080.61 698208.21,5349079.54 698208.11,5349078.17"/>
    </edge>
    <edge id=":148950363_7" function="internal">
        <lane id=":148950363_7_0" index="0" allow="pedestrian" speed="2.78" length="9.34" shape="698205.88,5349081.85 698215.01,5349079.89"/>
    </edge>
    <edge id=":148950363_8" function="internal">
        <lane id=":148950363_8_0" index="0" speed="8.33" length="7.72" shape="698205.88,5349081.85 698208.58,5349081.45 698210.61,5349081.62 698211.95,5349082.33 698212.61,5349083.61"/>
    </edge>
    <edge id=":1895894784_0" function="internal">
        <lane id=":1895894784_0_0" index="0" allow="delivery" speed="5.56" length="4.82" shape="698062.31,5349125.28 698060.96,5349124.64 698060.43,5349123.89 698060.72,5349123.01 698061.82,5349122.01"/>
    </edge>
    <edge id=":1895894979_0" function="internal">
        <lane id=":1895894979_0_0" index="0" allow="delivery" speed="5.56" length="6.88" shape="698155.06,5349069.72 698148.23,5349070.56"/>
    </edge>
    <edge id=":1895894979_1" function="internal">
        <lane id=":1895894979_1_0" index="0" allow="delivery" speed="5.56" length="2.41" shape="698155.06,5349069.72 698153.76,5349069.00 698153.28,5349068.22"/>
    </edge>
    <edge id=":1895894979_4" function="internal">
        <lane id=":1895894979_4_0" index="0" speed="5.56" length="2.41" shape="698153.28,5349068.22 698153.61,5349067.36 698154.77,5349066.43"/>
    </edge>
    <edge id=":1895894979_2" function="internal">
        <lane id=":1895894979_2_0" index="0" allow="delivery" speed="5.56" length="7.03" shape="698147.80,5349067.29 698154.77,5349066.43"/>
    </edge>
    <edge id=":1895894979_3" function="internal">
        <lane id=":1895894979_3_0" index="0" allow="delivery" speed="5.56" length="2.41" shape="698147.80,5349067.29 698149.13,5349067.94 698149.65,5349068.70"/>
    </edge>
    <edge id=":1895894979_5" function="internal">
        <lane id=":1895894979_5_0" index="0" speed="5.56" length="2.41" shape="698149.65,5349068.70 698149.35,5349069.58 698148.23,5349070.56"/>
    </edge>
    <edge id=":1896139695_0" function="internal">
        <lane id=":1896139695_0_0" index="0" allow="pedestrian" speed="2.78" length="9.52" shape="698198.45,5349062.43 698196.35,5349053.15"/>
    </edge>
    <edge id=":1896139695_1" function="internal">
        <lane id=":1896139695_1_0" index="0" allow="delivery" speed="5.56" length="6.93" shape="698201.49,5349058.55 698194.74,5349060.10"/>
    </edge>
    <edge id=":1896139695_2" function="internal">
        <lane id=":1896139695_2_0" index="0" allow="delivery" speed="5.56" length="2.41" shape="698201.49,5349058.55 698200.11,5349058.02 698199.52,5349057.30"/>
    </edge>
    <edge id=":1896139695_5" function="internal">
        <lane id=":1896139695_5_0" index="0" speed="5.56" length="2.41" shape="698199.52,5349057.30 698199.75,5349056.41 698200.77,5349055.33"/>
    </edge>
    <edge id=":1896139695_3" function="internal">
        <lane id=":1896139695_3_0" index="0" allow="delivery" speed="5.56" length="6.96" shape="698193.98,5349056.88 698200.77,5349055.33"/>
    </edge>
    <edge id=":1896139695_4" function="internal">
        <lane id=":1896139695_4_0" index="0" allow="delivery" speed="5.56" length="2.41" shape="698193.98,5349056.88 698195.38,5349057.40 698195.97,5349058.11"/>
    </edge>
    <edge id=":1896139695_6" function="internal">
        <lane id=":1896139695_6_0" index="0" speed="5.56" length="2.41" shape="698195.97,5349058.11 698195.75,5349059.01 698194.74,5349060.10"/>
    </edge>
    <edge id=":1896139712_0" function="internal">
        <lane id=":1896139712_0_0" index="0" speed="13.89" length="9.49" shape="698204.46,5349061.07 698202.45,5349051.80"/>
    </edge>
    <edge id=":1896139712_1" function="internal">
        <lane id=":1896139712_1_0" index="0" allow="delivery" speed="9.72" length="4.26" shape="698204.46,5349061.07 698204.03,5349059.78 698203.43,5349058.92 698202.65,5349058.50 698201.69,5349058.51"/>
    </edge>
    <edge id=":1896139712_2" function="internal">
        <lane id=":1896139712_2_0" index="0" speed="13.89" length="2.41" shape="698204.46,5349061.07 698205.00,5349059.69 698205.71,5349059.11"/>
    </edge>
    <edge id=":1896139712_9" function="internal">
        <lane id=":1896139712_9_0" index="0" speed="13.89" length="2.41" shape="698205.71,5349059.11 698206.61,5349059.33 698207.68,5349060.37"/>
    </edge>
    <edge id=":1896139712_3" function="internal">
        <lane id=":1896139712_3_0" index="0" speed="13.89" length="9.47" shape="698205.67,5349051.11 698207.68,5349060.37"/>
    </edge>
    <edge id=":1896139712_4" function="internal">
        <lane id=":1896139712_4_0" index="0" allow="delivery" speed="9.72" length="7.35" shape="698205.67,5349051.11 698205.92,5349053.90 698205.34,5349056.07 698203.93,5349057.60 698203.72,5349057.69"/>
    </edge>
    <edge id=":1896139712_5" function="internal">
        <lane id=":1896139712_5_0" index="0" speed="13.89" length="2.41" shape="698205.67,5349051.11 698205.13,5349052.49 698204.41,5349053.07"/>
    </edge>
    <edge id=":1896139712_10" function="internal">
        <lane id=":1896139712_10_0" index="0" speed="9.72" length="2.20" shape="698203.72,5349057.69 698201.69,5349058.51"/>
    </edge>
    <edge id=":1896139712_11" function="internal">
        <lane id=":1896139712_11_0" index="0" speed="13.89" length="2.41" shape="698204.41,5349053.07 698203.51,5349052.84 698202.45,5349051.80"/>
    </edge>
    <edge id=":1896139712_6" function="internal">
        <lane id=":1896139712_6_0" index="0" speed="9.72" length="9.58" shape="698200.97,5349055.29 698203.39,5349055.16 698205.31,5349055.96 698206.74,5349057.70 698207.68,5349060.37"/>
    </edge>
    <edge id=":1896139712_7" function="internal">
        <lane id=":1896139712_7_0" index="0" speed="9.72" length="4.28" shape="698200.97,5349055.29 698201.86,5349054.89 698202.40,5349054.18 698202.60,5349053.15 698202.45,5349051.80"/>
    </edge>
    <edge id=":1896139712_8" function="internal">
        <lane id=":1896139712_8_0" index="0" allow="delivery" speed="5.56" length="4.82" shape="698200.97,5349055.29 698202.36,5349055.83 698202.94,5349056.54 698202.72,5349057.44 698201.69,5349058.51"/>
    </edge>
    <edge id=":1896154417_0" function="internal">
        <lane id=":1896154417_0_0" index="0" allow="delivery" speed="5.56" length="6.01" shape="698249.05,5349032.08 698254.91,5349030.74"/>
    </edge>
    <edge id=":1896154426_0" function="internal">
        <lane id=":1896154426_0_0" index="0" allow="pedestrian" speed="2.78" length="5.20" shape="698305.82,5349051.95 698304.59,5349052.42 698303.75,5349053.23 698303.30,5349054.38 698303.23,5349055.86"/>
    </edge>
    <edge id=":1896154426_1" function="internal">
        <lane id=":1896154426_1_0" index="0" allow="pedestrian" speed="2.78" length="6.23" shape="698305.82,5349051.95 698299.73,5349053.23"/>
    </edge>
    <edge id=":1896154468_0" function="internal">
        <lane id=":1896154468_0_0" index="0" allow="pedestrian" speed="2.78" length="4.66" shape="698301.32,5349082.38 698300.72,5349081.31 698299.91,5349080.57 698298.89,5349080.17 698297.66,5349080.11"/>
    </edge>
    <edge id=":1896154468_1" function="internal">
        <lane id=":1896154468_1_0" index="0" allow="pedestrian" speed="2.78" length="4.64" shape="698301.38,5349077.72 698300.75,5349078.69 698299.92,5349079.41 698298.89,5349079.88 698297.66,5349080.11"/>
    </edge>
    <edge id=":2104013196_0" function="internal">
        <lane id=":2104013196_0_0" index="0" allow="pedestrian" speed="8.33" length="2.58" shape="698202.84,5349094.74 698202.88,5349095.44 698202.68,5349095.99 698202.25,5349096.38 698201.58,5349096.62"/>
    </edge>
    <edge id=":2104013210_0" function="internal">
        <lane id=":2104013210_0_0" index="0" allow="delivery" speed="5.56" length="6.13" shape="698164.57,5349045.08 698162.73,5349045.54 698161.60,5349045.22 698161.18,5349044.12 698161.46,5349042.25"/>
    </edge>
    <edge id=":2104013210_1" function="internal">
        <lane id=":2104013210_1_0" index="0" allow="pedestrian" speed="2.78" length="6.52" shape="698158.11,5349044.59 698159.51,5349044.56 698160.67,5349045.22 698161.57,5349046.58 698162.23,5349048.64"/>
    </edge>
    <edge id=":2104013219_0" function="internal">
        <lane id=":2104013219_0_0" index="0" allow="pedestrian" speed="5.56" length="12.45" shape="698167.98,5349063.96 698171.04,5349065.28 698173.84,5349065.85 698176.73,5349065.81 698180.07,5349065.31"/>
    </edge>
    <edge id=":2104013219_1" function="internal">
        <lane id=":2104013219_1_0" index="0" allow="pedestrian" speed="2.78" length="12.90" shape="698167.98,5349063.96 698171.03,5349065.51 698173.78,5349066.78 698176.57,5349067.95 698179.77,5349069.18"/>
    </edge>
    <edge id=":2104013219_2" function="internal">
        <lane id=":2104013219_2_0" index="0" allow="pedestrian" speed="8.33" length="10.88" shape="698169.48,5349067.67 698169.95,5349067.40 698171.87,5349066.91 698175.25,5349066.22 698180.07,5349065.31"/>
    </edge>
    <edge id=":2104013219_3" function="internal">
        <lane id=":2104013219_3_0" index="0" allow="pedestrian" speed="5.56" length="16.82" shape="698169.48,5349067.67 698166.92,5349065.68 698167.78,5349065.26 698172.06,5349066.43 698179.77,5349069.18"/>
    </edge>
    <edge id=":2104013221_0" function="internal">
        <lane id=":2104013221_0_0" index="0" allow="pedestrian" speed="5.56" length="6.83" shape="698198.36,5349072.19 698200.55,5349078.66"/>
    </edge>
    <edge id=":2104013221_1" function="internal">
        <lane id=":2104013221_1_0" index="0" allow="pedestrian" speed="8.33" length="6.77" shape="698198.36,5349072.19 698199.69,5349078.83"/>
    </edge>
    <edge id=":2104013221_2" function="internal">
        <lane id=":2104013221_2_0" index="0" allow="pedestrian" speed="2.78" length="6.57" shape="698195.12,5349074.95 698200.55,5349078.66"/>
    </edge>
    <edge id=":2104013221_3" function="internal">
        <lane id=":2104013221_3_0" index="0" allow="pedestrian" speed="5.56" length="6.23" shape="698195.12,5349074.95 698196.95,5349075.77 698198.32,5349076.69 698199.23,5349077.71 698199.69,5349078.83"/>
    </edge>
    <edge id=":2104752115_0" function="internal">
        <lane id=":2104752115_0_0" index="0" allow="delivery" speed="5.56" length="6.03" shape="698162.96,5349034.82 698161.63,5349028.94"/>
    </edge>
    <edge id=":2104752115_1" function="internal">
        <lane id=":2104752115_1_0" index="0" allow="delivery" speed="5.56" length="7.72" shape="698162.96,5349034.82 698163.02,5349033.49 698163.97,5349032.35 698165.80,5349031.40 698168.53,5349030.64"/>
    </edge>
    <edge id=":2104752115_2" function="internal">
        <lane id=":2104752115_2_0" index="0" allow="delivery" speed="5.56" length="4.96" shape="698162.96,5349034.82 698163.09,5349033.29 698163.63,5349032.51 698164.57,5349032.47 698165.93,5349033.17"/>
    </edge>
    <edge id=":2104752115_3" function="internal">
        <lane id=":2104752115_3_0" index="0" allow="delivery" speed="5.56" length="3.34" shape="698169.21,5349033.87 698165.93,5349033.17"/>
    </edge>
    <edge id=":2104752115_4" function="internal">
        <lane id=":2104752115_4_0" index="0" allow="delivery" speed="5.56" length="10.29" shape="698169.21,5349033.87 698166.39,5349034.05 698164.19,5349033.29 698162.61,5349031.58 698161.63,5349028.94"/>
    </edge>
    <edge id=":2104752115_5" function="internal">
        <lane id=":2104752115_5_0" index="0" allow="delivery" speed="5.56" length="4.82" shape="698169.21,5349033.87 698167.83,5349033.31 698167.25,5349032.59 698167.49,5349031.70 698168.53,5349030.64"/>
    </edge>
    <edge id=":2104752115_6" function="internal">
        <lane id=":2104752115_6_0" index="0" allow="delivery" speed="5.56" length="4.99" shape="698164.86,5349028.25 698165.33,5349029.53 698166.10,5349030.36 698167.17,5349030.73 698168.53,5349030.64"/>
    </edge>
    <edge id=":2104752115_7" function="internal">
        <lane id=":2104752115_7_0" index="0" allow="delivery" speed="5.56" length="5.04" shape="698164.86,5349028.25 698165.93,5349033.17"/>
    </edge>
    <edge id=":2104752115_8" function="internal">
        <lane id=":2104752115_8_0" index="0" allow="delivery" speed="5.56" length="4.82" shape="698164.86,5349028.25 698164.31,5349029.63 698163.59,5349030.20 698162.70,5349029.97 698161.63,5349028.94"/>
    </edge>
    <edge id=":2104752124_0" function="internal">
        <lane id=":2104752124_0_0" index="0" allow="delivery" speed="5.56" length="3.85" shape="698179.34,5349033.36 698179.01,5349032.73 698178.35,5349032.37 698177.34,5349032.28 698175.99,5349032.46"/>
    </edge>
    <edge id=":2104752124_1" function="internal">
        <lane id=":2104752124_1_0" index="0" allow="delivery" speed="5.56" length="7.97" shape="698179.34,5349033.36 698177.71,5349025.56"/>
    </edge>
    <edge id=":2104752124_2" function="internal">
        <lane id=":2104752124_2_0" index="0" allow="delivery" speed="5.56" length="5.36" shape="698179.34,5349033.36 698179.23,5349031.71 698179.68,5349030.78 698180.68,5349030.59 698182.25,5349031.12"/>
    </edge>
    <edge id=":2104752124_3" function="internal">
        <lane id=":2104752124_3_0" index="0" allow="delivery" speed="5.56" length="6.38" shape="698180.94,5349024.87 698182.25,5349031.12"/>
    </edge>
    <edge id=":2104752124_4" function="internal">
        <lane id=":2104752124_4_0" index="0" allow="delivery" speed="5.56" length="10.34" shape="698180.94,5349024.87 698181.13,5349027.70 698180.37,5349029.91 698178.65,5349031.49 698175.99,5349032.46"/>
    </edge>
    <edge id=":2104752124_5" function="internal">
        <lane id=":2104752124_5_0" index="0" allow="delivery" speed="5.56" length="4.82" shape="698180.94,5349024.87 698180.39,5349026.25 698179.67,5349026.83 698178.77,5349026.60 698177.71,5349025.56"/>
    </edge>
    <edge id=":2104752124_6" function="internal">
        <lane id=":2104752124_6_0" index="0" allow="delivery" speed="5.56" length="5.00" shape="698175.31,5349029.23 698176.60,5349028.76 698177.43,5349027.99 698177.80,5349026.93 698177.71,5349025.56"/>
    </edge>
    <edge id=":2104752124_7" function="internal">
        <lane id=":2104752124_7_0" index="0" allow="delivery" speed="5.56" length="7.97" shape="698175.31,5349029.23 698178.10,5349028.86 698180.19,5349029.05 698181.57,5349029.80 698182.25,5349031.12"/>
    </edge>
    <edge id=":2104752124_8" function="internal">
        <lane id=":2104752124_8_0" index="0" allow="delivery" speed="5.56" length="4.82" shape="698175.31,5349029.23 698176.69,5349029.78 698177.26,5349030.51 698177.03,5349031.40 698175.99,5349032.46"/>
    </edge>
    <edge id=":2105456475_0" function="internal">
        <lane id=":2105456475_0_0" index="0" allow="delivery" speed="5.56" length="2.88" shape="698179.95,5349036.38 698179.38,5349033.55"/>
    </edge>
    <edge id=":2105456475_1" function="internal">
        <lane id=":2105456475_1_0" index="0" allow="delivery" speed="5.56" length="2.42" shape="698179.95,5349036.38 698180.35,5349034.94 698181.01,5349034.28"/>
    </edge>
    <edge id=":2105456475_4" function="internal">
        <lane id=":2105456475_4_0" index="0" speed="5.56" length="2.42" shape="698181.01,5349034.28 698181.93,5349034.42 698183.11,5349035.34"/>
    </edge>
    <edge id=":2105456475_2" function="internal">
        <lane id=":2105456475_2_0" index="0" allow="delivery" speed="5.56" length="4.11" shape="698182.29,5349031.32 698183.11,5349035.34"/>
    </edge>
    <edge id=":2105456475_3" function="internal">
        <lane id=":2105456475_3_0" index="0" allow="delivery" speed="5.56" length="2.68" shape="698182.29,5349031.32 698182.40,5349032.97 698181.96,5349033.89"/>
    </edge>
    <edge id=":2105456475_5" function="internal">
        <lane id=":2105456475_5_0" index="0" speed="5.56" length="2.68" shape="698181.96,5349033.89 698180.95,5349034.09 698179.38,5349033.55"/>
    </edge>
    <edge id=":2105456509_0" function="internal">
        <lane id=":2105456509_0_0" index="0" allow="delivery" speed="5.56" length="9.50" shape="698144.32,5348947.96 698142.33,5348938.67"/>
    </edge>
    <edge id=":2105456509_1" function="internal">
        <lane id=":2105456509_1_0" index="0" allow="delivery" speed="5.56" length="10.32" shape="698144.32,5348947.96 698144.12,5348945.14 698144.88,5348942.94 698146.59,5348941.34 698149.24,5348940.35"/>
    </edge>
    <edge id=":2105456509_2" function="internal">
        <lane id=":2105456509_2_0" index="0" allow="delivery" speed="5.56" length="4.82" shape="698144.32,5348947.96 698144.86,5348946.57 698145.58,5348946.00 698146.48,5348946.23 698147.54,5348947.27"/>
    </edge>
    <edge id=":2105456509_3" function="internal">
        <lane id=":2105456509_3_0" index="0" allow="delivery" speed="5.56" length="5.02" shape="698149.95,5348943.57 698148.65,5348944.06 698147.82,5348944.83 698147.45,5348945.90 698147.54,5348947.27"/>
    </edge>
    <edge id=":2105456509_4" function="internal">
        <lane id=":2105456509_4_0" index="0" allow="delivery" speed="5.56" length="10.35" shape="698149.95,5348943.57 698147.12,5348943.78 698144.91,5348943.04 698143.31,5348941.33 698142.33,5348938.67"/>
    </edge>
    <edge id=":2105456509_5" function="internal">
        <lane id=":2105456509_5_0" index="0" allow="delivery" speed="5.56" length="4.82" shape="698149.95,5348943.57 698148.56,5348943.03 698147.98,5348942.32 698148.21,5348941.42 698149.24,5348940.35"/>
    </edge>
    <edge id=":2105456509_6" function="internal">
        <lane id=":2105456509_6_0" index="0" allow="delivery" speed="5.56" length="5.01" shape="698145.56,5348937.98 698146.03,5348939.27 698146.80,5348940.09 698147.87,5348940.45 698149.24,5348940.35"/>
    </edge>
    <edge id=":2105456509_7" function="internal">
        <lane id=":2105456509_7_0" index="0" allow="delivery" speed="5.56" length="9.50" shape="698145.56,5348937.98 698147.54,5348947.27"/>
    </edge>
    <edge id=":2105456509_8" function="internal">
        <lane id=":2105456509_8_0" index="0" allow="delivery" speed="5.56" length="4.82" shape="698145.56,5348937.98 698145.01,5348939.36 698144.29,5348939.94 698143.39,5348939.71 698142.33,5348938.67"/>
    </edge>
    <edge id=":2105456529_0" function="internal">
        <lane id=":2105456529_0_0" index="0" allow="delivery" speed="5.56" length="3.62" shape="698166.35,5349048.12 698165.98,5349046.74 698165.60,5349045.77 698165.19,5349045.21 698164.77,5349045.06"/>
    </edge>
    <edge id=":2105456529_1" function="internal">
        <lane id=":2105456529_1_0" index="0" allow="delivery" speed="5.56" length="8.60" shape="698166.35,5349048.12 698164.15,5349039.81"/>
    </edge>
    <edge id=":2105456529_2" function="internal">
        <lane id=":2105456529_2_0" index="0" allow="delivery" speed="5.56" length="10.64" shape="698166.35,5349048.12 698166.13,5349045.19 698166.92,5349042.95 698168.72,5349041.39 698171.53,5349040.53"/>
    </edge>
    <edge id=":2105456529_3" function="internal">
        <lane id=":2105456529_3_0" index="0" allow="delivery" speed="5.56" length="4.82" shape="698166.35,5349048.12 698166.88,5349046.74 698167.60,5349046.16 698168.50,5349046.38 698169.57,5349047.41"/>
    </edge>
    <edge id=":2105456529_4" function="internal">
        <lane id=":2105456529_4_0" index="0" allow="delivery" speed="5.56" length="5.08" shape="698172.04,5349043.79 698170.70,5349044.20 698169.84,5349044.94 698169.46,5349046.01 698169.57,5349047.41"/>
    </edge>
    <edge id=":2105456529_5" function="internal">
        <lane id=":2105456529_5_0" index="0" allow="delivery" speed="5.56" length="7.39" shape="698172.04,5349043.79 698164.77,5349045.06"/>
    </edge>
    <edge id=":2105456529_6" function="internal">
        <lane id=":2105456529_6_0" index="0" allow="delivery" speed="5.56" length="9.90" shape="698172.04,5349043.79 698169.00,5349043.94 698166.67,5349043.32 698165.06,5349041.95 698164.15,5349039.81"/>
    </edge>
    <edge id=":2105456529_7" function="internal">
        <lane id=":2105456529_7_0" index="0" allow="delivery" speed="5.56" length="4.82" shape="698172.04,5349043.79 698170.69,5349043.17 698170.16,5349042.41 698170.44,5349041.53 698171.53,5349040.53"/>
    </edge>
    <edge id=":2105456529_8" function="internal">
        <lane id=":2105456529_8_0" index="0" allow="delivery" speed="5.56" length="6.14" shape="698166.79,5349037.60 698167.54,5349039.09 698168.58,5349040.07 698169.91,5349040.55 698171.53,5349040.53"/>
    </edge>
    <edge id=":2105456529_9" function="internal">
        <lane id=":2105456529_9_0" index="0" allow="delivery" speed="5.56" length="10.21" shape="698166.79,5349037.60 698167.76,5349040.44 698168.39,5349042.45 698168.91,5349044.48 698169.57,5349047.41"/>
    </edge>
    <edge id=":2105456529_10" function="internal">
        <lane id=":2105456529_10_0" index="0" allow="delivery" speed="5.56" length="9.06" shape="698166.79,5349037.60 698167.56,5349040.66 698167.48,5349042.93 698166.55,5349044.39 698164.77,5349045.06"/>
    </edge>
    <edge id=":2105456529_11" function="internal">
        <lane id=":2105456529_11_0" index="0" allow="delivery" speed="5.56" length="5.02" shape="698166.79,5349037.60 698166.96,5349039.14 698166.57,5349040.02 698165.64,5349040.24 698164.15,5349039.81"/>
    </edge>
    <edge id=":2105456529_12" function="internal">
        <lane id=":2105456529_12_0" index="0" allow="delivery" speed="5.56" length="3.93" shape="698161.66,5349042.22 698162.90,5349041.86 698163.73,5349041.34 698164.15,5349040.66 698164.15,5349039.81"/>
    </edge>
    <edge id=":2105456529_13" function="internal">
        <lane id=":2105456529_13_0" index="0" allow="delivery" speed="5.56" length="10.01" shape="698161.66,5349042.22 698164.58,5349041.68 698166.59,5349041.32 698168.60,5349040.99 698171.53,5349040.53"/>
    </edge>
    <edge id=":2105456529_14" function="internal">
        <lane id=":2105456529_14_0" index="0" allow="delivery" speed="5.56" length="10.71" shape="698161.66,5349042.22 698164.59,5349042.09 698166.88,5349042.91 698168.54,5349044.69 698169.57,5349047.41"/>
    </edge>
    <edge id=":2105456529_15" function="internal">
        <lane id=":2105456529_15_0" index="0" allow="delivery" speed="5.56" length="6.15" shape="698161.66,5349042.22 698163.50,5349041.76 698164.63,5349042.08 698165.05,5349043.18 698164.77,5349045.06"/>
    </edge>
    <edge id=":2105456562_0" function="internal">
        <lane id=":2105456562_0_0" index="0" allow="delivery" speed="5.56" length="4.73" shape="698164.11,5349039.61 698163.02,5349035.01"/>
    </edge>
    <edge id=":2105456562_1" function="internal">
        <lane id=":2105456562_1_0" index="0" allow="delivery" speed="5.56" length="4.98" shape="698164.11,5349039.61 698163.94,5349038.08 698164.32,5349037.21 698165.25,5349036.98 698166.72,5349037.41"/>
    </edge>
    <edge id=":2105456562_2" function="internal">
        <lane id=":2105456562_2_0" index="0" allow="delivery" speed="5.56" length="4.11" shape="698165.99,5349033.37 698166.72,5349037.41"/>
    </edge>
    <edge id=":2105456562_3" function="internal">
        <lane id=":2105456562_3_0" index="0" allow="delivery" speed="5.56" length="4.96" shape="698165.99,5349033.37 698165.86,5349034.89 698165.32,5349035.68 698164.38,5349035.72 698163.02,5349035.01"/>
    </edge>
    <edge id=":2105456579_0" function="internal">
        <lane id=":2105456579_0_0" index="0" allow="delivery" speed="5.56" length="4.82" shape="698112.83,5348805.41 698113.36,5348804.02 698114.07,5348803.43 698114.97,5348803.65 698116.05,5348804.67"/>
    </edge>
    <edge id=":214052672_0" function="internal">
        <lane id=":214052672_0_0" index="0" speed="13.89" length="4.82" shape="698229.71,5349194.01 698229.09,5349195.36 698228.33,5349195.89 698227.45,5349195.61 698226.45,5349194.51"/>
    </edge>
    <edge id=":217451608_0" function="internal">
        <lane id=":217451608_0_0" index="0" allow="pedestrian" speed="2.78" length="6.92" shape="698231.19,5349074.14 698237.69,5349071.76"/>
    </edge>
    <edge id=":217451608_1" function="internal">
        <lane id=":217451608_1_0" index="0" allow="pedestrian" speed="2.78" length="5.73" shape="698231.19,5349074.14 698232.80,5349073.55 698233.94,5349073.72 698234.64,5349074.65 698234.88,5349076.34"/>
    </edge>
    <edge id=":217453195_0" function="internal">
        <lane id=":217453195_0_0" index="0" allow="pedestrian" speed="2.78" length="5.85" shape="698238.89,5349118.34 698237.26,5349117.67 698236.10,5349117.81 698235.42,5349118.76 698235.22,5349120.51"/>
    </edge>
    <edge id=":217453195_1" function="internal">
        <lane id=":217453195_1_0" index="0" allow="pedestrian" speed="2.78" length="8.65" shape="698238.89,5349118.34 698231.42,5349113.97"/>
    </edge>
    <edge id=":217453195_2" function="internal">
        <lane id=":217453195_2_0" index="0" allow="pedestrian" speed="2.78" length="8.65" shape="698235.12,5349111.86 698235.22,5349120.51"/>
    </edge>
    <edge id=":217453195_3" function="internal">
        <lane id=":217453195_3_0" index="0" allow="pedestrian" speed="2.78" length="5.88" shape="698235.12,5349111.86 698234.90,5349113.62 698234.21,5349114.56 698233.05,5349114.68 698231.42,5349113.97"/>
    </edge>
    <edge id=":217453196_0" function="internal">
        <lane id=":217453196_0_0" index="0" speed="13.89" length="3.15" shape="698213.83,5349106.15 698213.25,5349103.05"/>
    </edge>
    <edge id=":217453196_1" function="internal">
        <lane id=":217453196_1_0" index="0" speed="13.89" length="2.70" shape="698213.83,5349106.15 698213.75,5349104.48 698214.22,5349103.57"/>
    </edge>
    <edge id=":217453196_6" function="internal">