<?xml version="1.0" encoding="UTF-8"?>

<!-- generated on 11/05/15 02:02:20 by SUMO polyconvert Version 0.21.0
<?xml version="1.0" encoding="UTF-8"?>

<configuration xmlns:xsi="http://www.w3.org/2001/XMLSchema-instance" xsi:noNamespaceSchemaLocation="http://sumo-sim.org/xsd/polyconvertConfiguration.xsd">

    <input>
        <net-file value="gerching.net.xml"/>
        <osm-files value="gerching.osm"/>
        <osm.keep-full-type value="false"/>
        <type-file value="typemap.xml"/>
    </input>

    <output>
        <output-file value="gerching.poly.xml"/>
    </output>

</configuration>
-->

<additional>
    <poly id="100613060" type="parking" color="184,184,179" fill="1" layer="-1.00" shape="698343.32,5349046.91 698336.91,5349051.45 698345.66,5349117.39 698354.59,5349116.49 698361.71,5349119.08 698351.73,5349045.87 698343.32,5349046.91"/>
    <poly id="171814004" type="parking" color="184,184,179" fill="1" layer="-1.00" shape="698196.25,5349165.42 698201.56,5349164.55 698194.47,5349121.61 698189.16,5349122.48 698196.25,5349165.42"/>
    <poly id="172133981" type="landuse" color="194,194,130" fill="1" layer="-3.00" shape="698259.35,5349055.01 698315.37,5349042.65 698318.25,5349040.17 698320.72,5349036.54 698321.46,5349032.39 698321.18,5349029.00 698319.94,5349025.92 698316.96,5349024.09 698313.06,5349023.50 698290.16,5349028.47 698253.20,5349037.11 698252.52,5349039.27 698253.89,5349051.44 698255.43,5349052.88 698256.73,5349054.38 698259.35,5349055.01"/>
    <poly id="179243714" type="landuse" color="194,194,130" fill="1" layer="-3.00" shape="698194.21,5349116.92 698205.23,5349115.12 698207.20,5349115.98 698213.00,5349155.32 698208.79,5349161.93 698210.88,5349176.11 698209.62,5349178.25 698198.20,5349180.04 698196.25,5349165.42 698201.56,5349164.55 698194.47,5349121.61 698189.16,5349122.48 698189.52,5349119.83 698190.80,5349117.80 698194.21,5349116.92"/>
    <poly id="179243716" type="landuse" color="194,194,130" fill="1" layer="-3.00" shape="698176.34,5349116.98 698180.89,5349116.26 698182.00,5349118.48 698188.40,5349163.80 698181.58,5349164.96 698181.92,5349166.49 698160.55,5349169.37 698153.71,5349121.70 698153.44,5349120.67 698157.03,5349120.09 698157.84,5349125.11 698177.16,5349122.01 698176.34,5349116.98"/>
    <poly id="179243719" type="parking" color="184,184,179" fill="1" layer="-1.00" shape="698177.16,5349122.01 698157.84,5349125.11 698157.03,5349120.09 698176.34,5349116.98 698177.16,5349122.01"/>
    <poly id="179243744" type="landuse" color="194,194,130" fill="1" layer="-3.00" shape="698163.62,5349097.56 698164.97,5349103.13 698166.86,5349102.47 698169.92,5349100.71 698171.68,5349099.22 698173.69,5349096.81 698174.72,5349095.03 698175.90,5349091.85 698176.19,5349090.36 698176.25,5349086.28 698175.89,5349084.26 698174.79,5349081.24 698173.79,5349079.50 698171.70,5349076.94 698169.94,5349075.43 698167.40,5349073.92 698164.79,5349072.95 698162.27,5349072.47 698159.47,5349072.43 698160.48,5349078.61 698163.13,5349078.11 698166.87,5349079.21 698169.77,5349081.85 698171.61,5349086.17 698170.85,5349091.07 698169.06,5349094.51 698166.53,5349096.61 698163.62,5349097.56"/>
    <poly id="179243745" type="landuse" color="194,194,130" fill="1" layer="-3.00" shape="698215.93,5349048.54 698183.86,5348910.72 698181.32,5348903.48 698174.69,5348893.71 698173.93,5348897.96 698174.38,5348902.15 698181.43,5348934.69 698189.66,5348973.12 698194.93,5348981.54 698197.37,5348986.00 698210.55,5349042.79 698211.84,5349045.61 698213.57,5349047.45 698215.93,5349048.54"/>
    <poly id="179243747" type="landuse" color="194,194,130" fill="1" layer="-3.00" shape="698160.76,5349064.89 698163.22,5349062.99 698159.99,5349046.49 698146.02,5349049.79 698139.86,5349051.24 698122.11,5349055.41 698119.21,5349056.10 698073.59,5349049.94 698062.65,5349049.56 698056.41,5349051.33 698048.18,5349064.25 698023.81,5349071.85 698025.26,5349081.34 698041.91,5349078.45 698042.15,5349081.19 698056.84,5349079.17 698056.10,5349073.82 698116.17,5349065.56 698116.91,5349070.92 698160.76,5349064.89"/>
    <poly id="179243756" type="building" color="255,230,230" fill="1" layer="-1.00" shape="698157.19,5349080.49 698156.17,5349073.25 698103.84,5349080.60 698105.14,5349089.85 698095.79,5349091.16 698094.49,5349081.91 698062.60,5349086.39 698066.89,5349116.72 698098.77,5349112.25 698097.55,5349103.57 698106.90,5349102.26 698108.13,5349110.94 698160.46,5349103.59 698159.53,5349097.04 698162.10,5349097.26 698165.83,5349096.27 698168.45,5349094.12 698170.03,5349091.44 698170.62,5349088.36 698170.10,5349085.28 698168.56,5349082.55 698166.18,5349080.51 698163.25,5349079.41 698159.51,5349079.50 698157.19,5349080.49"/>
    <poly id="179243761" type="building" color="255,230,230" fill="1" layer="-1.00" shape="697958.29,5349218.34 697956.60,5349207.09 697959.90,5349206.59 697954.56,5349169.43 698089.61,5349150.20 698086.88,5349131.23 698153.71,5349121.70 698160.55,5349169.37 698181.92,5349166.49 698186.00,5349165.95 698188.96,5349185.42 698163.52,5349189.05 698145.82,5349191.57 698104.98,5349197.41 698088.75,5349199.73 698047.11,5349205.67 698030.76,5349208.00 697989.99,5349213.82 697974.37,5349216.04 697958.29,5349218.34"/>
    <poly id="179271322" type="farm" color="242,242,204" fill="1" layer="-3.00" shape="698269.21,5349170.93 698253.75,5349175.81 698253.73,5349181.97 698269.82,5349177.56 698273.85,5349176.51 698278.67,5349175.48 698281.97,5349177.99 698288.00,5349204.81 698287.22,5349208.65 698281.64,5349210.16 698290.78,5349251.01 698269.47,5349255.70 698269.20,5349263.98 698292.43,5349258.30 698307.08,5349323.04 698307.54,5349326.81 698304.27,5349327.17 698254.02,5349314.41 698238.62,5349209.46 698237.71,5349184.19 698237.19,5349158.94 698236.59,5349145.89 698228.65,5349146.72 698222.51,5349104.07 698218.99,5349082.08 698231.71,5349080.13 698233.65,5349100.42 698233.69,5349114.50 698236.67,5349116.08 698236.18,5349079.44 698236.35,5349074.69 698255.12,5349071.63 698269.21,5349170.93"/>
    <poly id="179271735" type="landuse" color="194,194,130" fill="1" layer="-3.00" shape="698240.48,5349024.36 698237.52,5349012.14 698220.28,5348934.85 698216.58,5348915.25 698213.84,5348896.67 698212.43,5348891.46 698210.88,5348888.49 698208.46,5348885.16 698206.05,5348883.96 698203.35,5348883.19 698198.97,5348883.24 698182.42,5348887.31 698177.19,5348890.63 698182.82,5348898.84 698186.81,5348906.26 698188.35,5348913.46 698192.66,5348932.69 698219.67,5349049.86 698234.54,5349046.01 698230.50,5349029.29 698230.63,5349027.00 698240.48,5349024.36"/>
    <poly id="200497252" type="natural" color="140,196,107" fill="0" layer="-4.00" shape="698193.05,5349024.50 698174.09,5348939.39"/>
    <poly id="200497265" type="natural" color="140,196,107" fill="0" layer="-4.00" shape="698211.93,5349043.22 698181.75,5348908.47"/>
    <poly id="200576763" type="natural" color="140,196,107" fill="0" layer="-4.00" shape="698209.35,5349100.17 698207.31,5349089.96"/>
    <poly id="200576765" type="natural" color="140,196,107" fill="0" layer="-4.00" shape="698198.36,5349049.72 698196.98,5349043.52"/>
    <poly id="200576766" type="natural" color="140,196,107" fill="0" layer="-4.00" shape="698170.28,5349037.61 698178.50,5349036.11"/>
    <poly id="200576770" type="natural" color="140,196,107" fill="0" layer="-4.00" shape="698216.91,5349146.31 698212.91,5349118.18"/>
    <poly id="200576776" type="natural" color="140,196,107" fill="0" layer="-4.00" shape="698182.04,5349066.24 698194.68,5349063.70"/>
    <poly id="200576779" type="natural" color="140,196,107" fill="0" layer="-4.00" shape="698203.89,5349073.96 698201.48,5349062.95"/>
    <poly id="22757641" type="parking" color="184,184,179" fill="1" layer="-1.00" shape="698158.50,5349041.29 698155.79,5349029.34 698151.61,5349010.93 698147.17,5348991.39 698142.69,5348971.66 698138.69,5348954.04 698135.44,5348939.75 698133.89,5348932.77 698131.25,5348920.92 698127.86,5348906.24 698124.44,5348891.45 698122.96,5348885.03 698109.38,5348826.33 698108.60,5348822.87 698104.99,5348803.72 698137.10,5348798.85 698141.53,5348818.46 698166.36,5348930.70 698189.57,5349035.31 698181.73,5349036.82 698165.85,5349039.91 698158.50,5349041.29"/>
    <poly id="22757642" type="landuse" color="194,194,130" fill="1" layer="-3.00" shape="698158.50,5349041.29 698144.88,5349044.38 698122.23,5348942.43 698135.44,5348939.75 698138.69,5348954.04 698142.69,5348971.66 698147.17,5348991.39 698151.61,5349010.93 698155.79,5349029.34 698158.50,5349041.29"/>
    <poly id="242534848" type="commercial" color="209,209,204" fill="1" layer="-3.00" shape="698129.59,5348523.07 698163.80,5348658.97 698130.18,5348669.81 698119.46,5348672.53 698115.02,5348673.66 698119.82,5348712.21 698122.28,5348716.46 698130.41,5348751.90 698154.06,5348767.41 698165.86,5348801.34 698173.77,5348836.52 698184.88,5348884.14 698219.79,5349031.96 698236.41,5349068.39 698256.60,5349065.60 698261.67,5349100.30 698269.59,5349137.94 698336.11,5349125.73 698338.14,5349125.35 698398.46,5349112.69 698580.56,5349076.13 698639.79,5349055.79 698718.10,5349031.15 698699.49,5349004.21 698745.85,5348991.49 698784.60,5348950.31 698780.59,5348944.48 698713.47,5348856.05 698657.25,5348895.95 698638.25,5348801.35 698595.93,5348785.06 698620.24,5348617.95 698487.01,5348631.51 698456.74,5348691.76 698370.07,5348750.53 698320.67,5348812.26 698295.92,5348727.54 698333.82,5348700.18 698345.03,5348659.62 698365.15,5348642.53 698350.52,5348587.32 698360.97,5348574.14 698384.21,5348538.57 698388.62,5348511.27 698383.53,5348487.49 698363.11,5348468.33 698332.19,5348455.54 698242.56,5348484.07 698129.59,5348523.07"/>
    <poly id="302765544" type="building" color="255,230,230" fill="1" layer="-1.00" shape="698223.26,5349102.15 698220.19,5349083.18 698233.21,5349081.22 698233.33,5349100.20 698223.26,5349102.15"/>
    <poly id="308082255" type="amenity" color="237,199,199" fill="1" layer="-1.00" shape="698195.72,5349102.37 698200.11,5349101.25 698199.19,5349097.66 698194.80,5349098.76 698195.72,5349102.37"/>
    <poly id="308082255#1" type="building" color="255,230,230" fill="1" layer="-1.00" shape="698195.72,5349102.37 698200.11,5349101.25 698199.19,5349097.66 698194.80,5349098.76 698195.72,5349102.37"/>
    <poly id="308082258" type="amenity" color="237,199,199" fill="1" layer="-1.00" shape="698186.41,5349100.72 698190.10,5349099.69 698191.13,5349103.38 698187.44,5349104.41 698186.41,5349100.72"/>
    <poly id="308082258#1" type="building" color="255,230,230" fill="1" layer="-1.00" shape="698186.41,5349100.72 698190.10,5349099.69 698191.13,5349103.38 698187.44,5349104.41 698186.41,5349100.72"/>
    <poly id="308082259" type="amenity" color="237,199,199" fill="1" layer="-1.00" shape="698184.31,5349107.60 698182.92,5349100.74 698177.82,5349101.77 698179.21,5349108.63 698184.31,5349107.60"/>
    <poly id="308082259#1" type="building" color="255,230,230" fill="1" layer="-1.00" shape="698184.31,5349107.60 698182.92,5349100.74 698177.82,5349101.77 698179.21,5349108.63 698184.31,5349107.60"/>
    <poly id="324748858" type="landuse" color="194,194,130" fill="1" layer="-3.00" shape="698294.31,5349213.39 698282.94,5349167.98 698274.91,5349168.96 698269.59,5349137.94 698336.11,5349125.73 698345.14,5349184.67 698337.04,5349199.90 698339.70,5349207.95 698346.81,5349258.99 698348.09,5349270.86 698351.88,5349272.97 698358.24,5349318.91 698364.31,5349361.75 698360.61,5349362.28 698362.24,5349371.93 698363.19,5349378.10 698358.28,5349378.51 698325.16,5349383.32 698313.90,5349290.54 698294.31,5349213.39"/>
    <poly id="99900639" type="building" color="255,230,230" fill="1" layer="-1.00" shape="698319.33,5349060.63 698322.98,5349081.66 698321.11,5349082.24 698324.21,5349102.64 698312.50,5349104.15 698310.77,5349093.53 698312.95,5349093.14 698308.95,5349072.33 698310.83,5349072.00 698309.49,5349061.82 698319.33,5349060.63"/>
    <poly id="99900643" type="building" color="255,230,230" fill="1" layer="-1.00" shape="698279.55,5349069.83 698281.36,5349078.03 698262.88,5349082.36 698260.98,5349073.95 698279.55,5349069.83"/>
    <poly id="99900648" type="building" color="255,230,230" fill="1" layer="-1.00" shape="698234.92,5349047.60 698244.49,5349045.29 698240.07,5349026.99 698230.50,5349029.29 698234.54,5349046.01 698234.92,5349047.60"/>
    <poi id="1167060129" type="building" color="255,230,230" layer="-1.00" x="698221.90" y="5349024.32"/>
    <poi id="1167060137" type="building" color="255,230,230" layer="-1.00" x="698222.71" y="5349026.65"/>
    <poi id="1167060157" type="building" color="255,230,230" layer="-1.00" x="698221.27" y="5349022.17"/>
    <poi id="2105456534" type="amenity" color="237,199,199" layer="-1.00" x="698184.42" y="5349077.64"/>
    <poi id="2151551618" type="amenity" color="237,199,199" layer="-1.00" x="698229.96" y="5349086.00"/>
    <poi id="2376920556" type="amenity" color="237,199,199" layer="-1.00" x="698195.16" y="5349082.16"/>
    <poi id="2376920738" type="amenity" color="237,199,199" layer="-1.00" x="698189.40" y="5349083.78"/>
    <poi id="2376920741" type="amenity" color="237,199,199" layer="-1.00" x="698196.96" y="5349092.38"/>
    <poi id="2376920744" type="amenity" color="237,199,199" layer="-1.00" x="698191.25" y="5349093.01"/>
    <poi id="2376920747" type="amenity" color="237,199,199" layer="-1.00" x="698185.51" y="5349094.48"/>
    <poi id="3232218361" type="unknown" color="51,128,255" layer="-1.00" x="698239.56" y="5349081.83"/>
    <poi id="365417283" type="amenity" color="237,199,199" layer="-1.00" x="698317.10" y="5349079.62"/>
</additional>
