<?xml version="1.0" encoding="UTF-8"?>

<!-- generated on 11/04/15 22:55:22 by SUMO polyconvert Version 0.21.0
<?xml version="1.0" encoding="UTF-8"?>

<configuration xmlns:xsi="http://www.w3.org/2001/XMLSchema-instance" xsi:noNamespaceSchemaLocation="http://sumo-sim.org/xsd/polyconvertConfiguration.xsd">

    <input>
        <net-file value="newyork.net.xml"/>
        <osm-files value="newyork.osm"/>
        <type-file value="typemap.xml"/>
    </input>

    <output>
        <output-file value="newyork.poly.xml"/>
    </output>

</configuration>
-->

<additional xmlns:xsi="http://www.w3.org/2001/XMLSchema-instance" xsi:noNamespaceSchemaLocation="http://sumo-sim.org/xsd/additional_file.xsd">
    <poly id="108158013" type="amenity" color="237,199,199" fill="1" layer="-1.00" shape="162.17,230.76 5.41,312.80 -211.68,-91.27 -159.72,-119.53 -135.55,-94.87 -113.99,-81.08 -108.51,-77.15 -91.19,-64.73 -71.77,-50.81 -42.99,-34.23 -18.84,-8.68 53.49,77.90 108.79,149.82 141.69,200.74 162.17,230.76"/>
    <poly id="266866285" type="building" color="255,230,230" fill="1" layer="-1.00" shape="119.68,383.60 112.54,370.23 92.52,380.92 77.99,353.72 81.05,352.08 87.48,364.11 104.44,355.06 95.33,337.99 90.06,340.82 85.78,332.81 72.04,340.14 69.50,341.49 71.16,344.60 52.84,354.39 51.24,351.40 42.00,356.33 70.56,409.83 70.88,409.67 86.21,401.48 119.68,383.60"/>
    <poly id="266866298" type="building" color="255,230,230" fill="1" layer="-1.00" shape="237.59,348.19 214.55,360.50 202.81,338.53 223.92,327.26 215.82,314.86 175.28,336.33 161.81,343.45 171.26,361.14 178.75,357.14 180.75,360.87 193.53,354.05 207.81,380.80 245.77,360.72 237.59,348.19"/>
    <poly id="266866299" type="building" color="255,230,230" fill="1" layer="-1.00" shape="175.28,336.33 215.82,314.86 223.92,327.26 237.59,348.19 245.77,360.72 268.18,348.85 193.51,229.88 142.83,256.70 144.13,259.15 143.09,259.69 165.52,302.07 161.78,304.06 163.22,306.79 160.43,308.27 161.05,309.43 175.28,336.33"/>
    <poly id="266866301" type="building" color="255,230,230" fill="1" layer="-1.00" shape="60.59,318.69 59.25,319.41 52.10,306.03 23.33,321.38 42.00,356.33 51.24,351.40 52.84,354.39 71.16,344.60 69.50,341.49 72.04,340.14 60.59,318.69"/>
    <poly id="266866310" type="building" color="255,230,230" fill="1" layer="-1.00" shape="153.71,435.44 154.25,436.44 194.25,415.08 193.52,413.71 196.83,411.94 197.10,410.93 195.95,408.76 195.47,407.87 196.05,407.55 171.26,361.14 161.81,343.45 175.28,336.33 161.05,309.43 155.09,312.58 156.04,314.39 148.46,318.44 140.53,303.60 127.83,310.39 133.07,320.20 108.70,333.21 103.46,323.40 91.07,330.02 95.33,337.99 104.44,355.06 112.54,370.23 119.68,383.60 134.07,410.53 136.20,409.39 138.52,413.74 137.36,414.36 142.77,424.49 148.17,434.60 149.25,436.63 150.20,437.30 150.53,437.13 153.71,435.44"/>
    <poly id="266866311" type="building" color="255,230,230" fill="1" layer="-1.00" shape="70.50,318.55 66.15,320.79 72.96,333.96 77.31,331.72 70.50,318.55"/>
    <poly id="266867287" type="building" color="255,230,230" fill="1" layer="-1.00" shape="75.34,150.27 84.07,166.33 61.58,178.47 63.28,181.62 61.11,184.66 61.70,188.77 63.75,191.97 65.72,193.81 72.19,196.62 102.70,252.76 118.84,243.99 95.23,200.52 101.54,197.10 105.32,204.06 131.99,189.57 97.17,138.34 75.34,150.27"/>
    <poly id="266867293" type="building" color="255,230,230" fill="1" layer="-1.00" shape="3.70,160.28 -11.69,164.41 -13.12,165.84 -13.46,167.05 -13.15,169.41 -2.12,189.77 -9.57,190.66 -10.11,190.14 -11.93,188.84 -13.93,187.85 -16.07,187.20 -18.28,186.87 -20.51,186.90 -22.72,187.27 -24.83,187.99 -26.80,189.02 -28.60,190.36 -30.16,191.96 -31.45,193.79 -32.44,195.78 -33.11,197.92 -33.43,200.12 -33.40,202.36 -33.03,204.56 -32.32,206.68 -31.28,208.65 -29.94,210.45 -28.34,212.01 -26.52,213.31 -24.51,214.30 -22.39,214.95 -20.18,215.28 -17.94,215.25 -15.74,214.88 -13.62,214.16 -11.64,213.13 -9.85,211.80 -8.29,210.19 -7.00,208.37 -6.01,206.37 -5.34,204.23 -5.02,202.03 -5.04,199.80 -5.37,197.89 -0.38,192.99 25.74,241.19 42.60,232.05 3.70,160.28"/>
    <poly id="266867296" type="building" color="255,230,230" fill="1" layer="-1.00" shape="50.14,258.84 28.02,270.50 27.27,269.09 22.78,271.46 31.31,287.65 57.94,273.63 50.14,258.84"/>
    <poly id="266867297" type="building" color="255,230,230" fill="1" layer="-1.00" shape="68.09,249.39 58.65,231.48 18.58,252.60 27.27,269.09 28.02,270.50 50.14,258.84 68.09,249.39"/>
    <poi id="357573246" type="amenity" color="237,199,199" layer="-1.00" x="55.30" y="331.04"/>
    <poi id="368052734" type="building" color="255,230,230" layer="-1.00" x="116.22" y="227.11"/>
</additional>
