<?xml version="1.0"?>
<!-- generated on 2015-11-04 23:04:13.340000 by $Id: randomTrips.py 18756 2015-08-31 19:16:33Z behrisch $
  options: -n newyork.net.xml -r newyork.rou.xml -e 30 -l
-->
<trips>
    <trip id="0" depart="0.00" from="32960687" to="32959795" />
    <trip id="1" depart="1.00" from="-375313958" to="32959795" />
    <trip id="2" depart="2.00" from="161387758" to="-161387757" />
    <trip id="3" depart="3.00" from="161387758" to="32959299" />
    <trip id="4" depart="4.00" from="161387758" to="32959299" />
    <trip id="5" depart="5.00" from="375312364" to="32959795" />
    <trip id="6" depart="6.00" from="161387758" to="-161387759" />
    <trip id="7" depart="7.00" from="32960687" to="32959299" />
    <trip id="8" depart="8.00" from="375312364" to="32959299" />
    <trip id="9" depart="9.00" from="375312364" to="161387759" />
    <trip id="10" depart="10.00" from="375312364" to="32959299" />
    <trip id="11" depart="11.00" from="161387758" to="-161387757" />
    <trip id="12" depart="12.00" from="32960687" to="-161387759" />
    <trip id="13" depart="13.00" from="161387757" to="375313958" />
    <trip id="14" depart="14.00" from="32960687" to="32959299" />
    <trip id="15" depart="15.00" from="161387758" to="32959299" />
    <trip id="16" depart="16.00" from="375312364" to="375313958" />
    <trip id="17" depart="17.00" from="161387758" to="32959299" />
    <trip id="18" depart="18.00" from="161387759" to="32959795" />
    <trip id="19" depart="19.00" from="161387757" to="32959299" />
    <trip id="20" depart="20.00" from="375312364" to="32959299" />
    <trip id="21" depart="21.00" from="161387758" to="-161387759" />
    <trip id="22" depart="22.00" from="161387758" to="161387758" />
    <trip id="23" depart="23.00" from="-161387759" to="32959299" />
    <trip id="24" depart="24.00" from="32960687" to="32959299" />
    <trip id="25" depart="25.00" from="32960687" to="-161387757" />
    <trip id="26" depart="26.00" from="32960687" to="32959795" />
    <trip id="27" depart="27.00" from="375312364" to="32959795" />
    <trip id="28" depart="28.00" from="32960687" to="32959299" />
    <trip id="29" depart="29.00" from="161387758" to="32959299" />
</trips>
