<edges>
<edge id="12" from="1" to="2" speed="60"/> 
<edge id="out1" from="2" to="3" speed="60"/>
<edge id="32" from="3" to="2"  speed="60"/>
<edge id="out2" from="2" to="1" speed="60" />
</edges>
